begin Options
    rcut = 6.2
    load_rllm = true
    verbosity = 2
end

begin ML
    update = false
    Ncluster = 30
    Npoints = 200
end

begin atom Cs
  alpha = 20
  orbitals = s
end

begin atom Pb
  alpha = 16
  orbitals = s px py pz
end

begin atom Br
  alpha = 14
  orbitals = px py pz
end
