begin Options
    rcut = 7
    load_rllm = true
    verbosity = 1
end

begin Optimizer
    update_tb = false
    lr = 0.001
    niter = 500
    loss = MAE
    wE = 1 1 1 1 1 1 0.1 0.1
    wk_1 = 5
end

begin ML
    ncluster = 70
    npoints = 70
end

begin atom Ga
    n = 3
    alpha = 13
    orbitals = sp3dr2 sp3dr2 sp3dr2 sp3dr2
end

begin atom As
    n = 3
    alpha = 13
    orbitals = sp3dr2 sp3dr2 sp3dr2 sp3dr2
    nnaxes = true
end