begin Options
    rcut = 7
    verbosity = 0
    load_rllm = true
end

begin Optimizer
    lr = 0.3
    niter = 200
    loss = MAE
    train_mode = universal
end

begin atom Cs
  alpha = 3.77385
  orbitals = s
end

begin atom Pb
  alpha = 29.83655
  orbitals = s px py pz
end

begin atom Br
  alpha = 16.93986
  orbitals = px py pz
end

begin atom Ga
    n = 3
    alpha = 9
    orbitals = sp3dr2 sp3dr2 sp3dr2 sp3dr2
end

begin atom As
    n = 3
    alpha = 13
    orbitals = sp3dr2 sp3dr2 sp3dr2 sp3dr2
    nnaxes = true
end