begin Options
    rcut = 7
    load_rllm = true
    rllm_file = rllm.dat
    sp_mode = true
    verbosity = 0
end

begin Supercell
    Nconf = 2
    Nconf_max = 10
end

begin Optimizer
    lr = 0.01
    niter = 10
    loss = MAE
    train_data = eigenval.h5
    train_mode = md
end

begin ML
    ncluster = 15
    npoints = 100
end

begin atom Ga
    n = 3
    alpha = 9
    orbitals = sp3dr2 sp3dr2 sp3dr2 sp3dr2
end

begin atom As
    n = 3
    alpha = 13
    orbitals = sp3dr2 sp3dr2 sp3dr2 sp3dr2
    nnaxes = true
end