begin Options
    rcut = 5.5
    poscar = POSCAR
    verbosity = 1
    sp_mode = true
    load_rllm = true
    init_params = params.dat
end

begin Supercell
    Nconf = 12
    Nconf_min = 1
    Nconf_max = 30
    xdatcar = structures.h5
    poscar = POSCAR
end

begin Optimizer
    update_tb = false
    lr = 0.01
    niter = 200
    bandmin = 209
    wE_96-112 = 0.1
    wE_72-73 = 3
    wk_1 = 5
    loss = MAE
    train_data = eigenval.h5
    train_mode = md
    val_mode = md
    val_ratio = 1
    val_data = eigenval.h5
end

begin ML
    update = true
    sim_params = 0.5
    ncluster = 30
    npoints = 640
end

begin SOC
    update = false
    init_params = params.dat
end

begin atom Cs
  alpha = 25.05821
  orbitals = s
end

begin atom Pb
  alpha = 29.83655
  orbitals = s px py pz
end

begin atom Br
  alpha = 16.93986
  orbitals = px py pz
end

