begin Options
    rcut = 5.5
    verbosity = 2
    load_rllm = true
    init_params = params.dat
    sp_mode = true
    sp_diag = true
    eig_target = 1.3
    soc = true
end

begin Supercell
    Nconf = 5
    Nconf_min = 1
    Nconf_max = 100
    config_inds = 79 5 35 67 71
    xdatcar = ../structures.h5
    poscar = ../POSCAR
end

begin ML
   sim_params = 0.25
   init_params = ml_params.dat
   apply_distortion = true
   env_scale = 2
end

begin atom Pb
  alpha = 26.56343
  orbitals = s px py pz
end

begin atom Br
  alpha = 14.60105
  orbitals = px py pz
end

